*Heading
** Job name: a_b_1 Model name: Model-1
** Generated by: Abaqus/CAE Learning Edition 2023
*Preprint, echo=NO, model=NO, history=NO, contact=NO
**
** PARTS
**
*Part, name=Part-1
*Node
      1,         -45.,         -25.
      2,         -45.,          25.
      3,         -50.,          25.
      4,         -50.,         -25.
      5,           0.,          2.5
      6,           0.,          25.
      7,           0.,         -25.
      8,           0.,         -2.5
      9,          2.5,           0.
     10,          50.,         -25.
     11,          50.,          25.
     12,         -45.,         -20.
     13,         -45.,         -15.
     14,         -45.,         -10.
     15,         -45.,          -5.
     16,         -45.,           0.
     17,         -45.,           5.
     18,         -45.,          10.
     19,         -45.,          15.
     20,         -45.,          20.
** ... 553 like lines cut
*Element, type=CPS4R
 1,   1,  12, 112,  31
 2,  12,  13, 113, 112
 3,  13,  14, 114, 113
 4,  14,  15, 115, 114
 5,  15,  16, 116, 115
 6,  16,  17, 117, 116
 7,  17,  18, 118, 117
 8,  18,  19, 119, 118
 9,  19,  20, 120, 119
10,  20,   2,  21, 120
11,  31, 112,  30,   4
12, 112, 113,  29,  30
13, 113, 114,  28,  29
14, 114, 115,  27,  28
15, 115, 116,  26,  27
16, 116, 117,  25,  26
17, 117, 118,  24,  25
18, 118, 119,  23,  24
19, 119, 120,  22,  23
20, 120,  21,   3,  22
** ... 511 like lines cut
*Nset, nset=Set-1, generate
   1,  573,    1
*Elset, elset=Set-1, generate
   1,  531,    1
** Section: Section-1
*Solid Section, elset=Set-1, material=Material-1
,
*End Part
**  
**
** ASSEMBLY
**
*Assembly, name=Assembly
**  
*Instance, name=Part-1-1, part=Part-1
*End Instance
**  
*Nset, nset=Set-1, instance=Part-1-1
  4, 10
*Nset, nset=Set-2, instance=Part-1-1
 7,
*Elset, elset=_Surf-1_S3, internal, instance=Part-1-1, generate
 11,  20,   1
*Surface, type=ELEMENT, name=Surf-1
_Surf-1_S3, S3
*Elset, elset=_Surf-2_S2, internal, instance=Part-1-1
 280, 306, 466, 470, 471, 477
*Elset, elset=_Surf-2_S4, internal, instance=Part-1-1
 303, 304, 452, 465
*Surface, type=ELEMENT, name=Surf-2
_Surf-2_S2, S2
_Surf-2_S4, S4
*End Assembly
** 
** MATERIALS
** 
*Material, name=Material-1
*Elastic
1000., 0.3
** ----------------------------------------------------------------
** 
** STEP: Step-1
** 
*Step, name=Step-1, nlgeom=NO
*Static
1., 1., 1e-05, 1.
** 
** BOUNDARY CONDITIONS
** 
** Name: BC-1 Type: Displacement/Rotation
*Boundary
Set-1, 2, 2
** Name: BC-2 Type: Displacement/Rotation
*Boundary
Set-2, 1, 1
** 
** LOADS
** 
** Name: Load-1   Type: Surface traction
*Dsload, follower=NO, constant resultant=YES
Surf-1, TRVEC, 1., -1., 0., 0.
** Name: Load-2   Type: Surface traction
*Dsload, follower=NO, constant resultant=YES
Surf-2, TRVEC, 1., 1., 0., 0.
** 
** OUTPUT REQUESTS
** 
*Restart, write, frequency=0
** 
** FIELD OUTPUT: F-Output-1
** 
*Output, field, variable=PRESELECT
** 
** HISTORY OUTPUT: H-Output-1
** 
*Output, history, variable=PRESELECT
*End Step
